<routes>
  <!--Namespace(N=75, filecount=None, input='routes.txt', launch=False, output='singleIntersection.rou.xml', quarter=100)-->
  <vType id="car" accel="0.8" decel="4.5" sigma="1.0" length="4" minGap="2.5" maxSpeed="33.33" guiShape="passenger" />
  <route id="1" edges="1/0to1/1 1/1to1/2"/>
  <route id="2" edges="1/2to1/1 1/1to1/0"/>
  <route id="3" edges="2/1to1/1 1/1to0/1"/>
  <route id="4" edges="0/1to1/1 1/1to2/1"/>
  <vehicle id="0" type="car" route="1" depart="0"/>
  <vehicle id="1" type="car" route="2" depart="1"/>
  <vehicle id="2" type="car" route="3" depart="1"/>
  <vehicle id="3" type="car" route="4" depart="2"/>
  <vehicle id="4" type="car" route="1" depart="2"/>
  <vehicle id="5" type="car" route="2" depart="4"/>
  <vehicle id="6" type="car" route="3" depart="4"/>
  <vehicle id="7" type="car" route="4" depart="5"/>
  <vehicle id="8" type="car" route="1" depart="7"/>
  <vehicle id="9" type="car" route="2" depart="7"/>
  <vehicle id="10" type="car" route="3" depart="9"/>
  <vehicle id="11" type="car" route="4" depart="10"/>
  <vehicle id="12" type="car" route="1" depart="10"/>
  <vehicle id="13" type="car" route="2" depart="12"/>
  <vehicle id="14" type="car" route="3" depart="13"/>
  <vehicle id="15" type="car" route="4" depart="14"/>
  <vehicle id="16" type="car" route="1" depart="17"/>
  <vehicle id="17" type="car" route="2" depart="18"/>
  <vehicle id="18" type="car" route="3" depart="18"/>
  <vehicle id="19" type="car" route="4" depart="19"/>
  <vehicle id="20" type="car" route="1" depart="19"/>
  <vehicle id="21" type="car" route="2" depart="19"/>
  <vehicle id="22" type="car" route="3" depart="20"/>
  <vehicle id="23" type="car" route="4" depart="22"/>
  <vehicle id="24" type="car" route="1" depart="23"/>
  <vehicle id="25" type="car" route="2" depart="25"/>
  <vehicle id="26" type="car" route="3" depart="25"/>
  <vehicle id="27" type="car" route="4" depart="25"/>
  <vehicle id="28" type="car" route="1" depart="25"/>
  <vehicle id="29" type="car" route="2" depart="25"/>
  <vehicle id="30" type="car" route="3" depart="26"/>
  <vehicle id="31" type="car" route="4" depart="28"/>
  <vehicle id="32" type="car" route="1" depart="29"/>
  <vehicle id="33" type="car" route="2" depart="29"/>
  <vehicle id="34" type="car" route="3" depart="30"/>
  <vehicle id="35" type="car" route="4" depart="30"/>
  <vehicle id="36" type="car" route="1" depart="30"/>
  <vehicle id="37" type="car" route="2" depart="30"/>
  <vehicle id="38" type="car" route="3" depart="33"/>
  <vehicle id="39" type="car" route="4" depart="36"/>
  <vehicle id="40" type="car" route="1" depart="39"/>
  <vehicle id="41" type="car" route="2" depart="40"/>
  <vehicle id="42" type="car" route="3" depart="40"/>
  <vehicle id="43" type="car" route="4" depart="41"/>
  <vehicle id="44" type="car" route="1" depart="41"/>
  <vehicle id="45" type="car" route="2" depart="41"/>
  <vehicle id="46" type="car" route="3" depart="43"/>
  <vehicle id="47" type="car" route="4" depart="43"/>
  <vehicle id="48" type="car" route="1" depart="46"/>
  <vehicle id="49" type="car" route="2" depart="49"/>
  <vehicle id="50" type="car" route="3" depart="49"/>
  <vehicle id="51" type="car" route="4" depart="52"/>
  <vehicle id="52" type="car" route="1" depart="54"/>
  <vehicle id="53" type="car" route="2" depart="54"/>
  <vehicle id="54" type="car" route="3" depart="54"/>
  <vehicle id="55" type="car" route="4" depart="55"/>
  <vehicle id="56" type="car" route="1" depart="55"/>
  <vehicle id="57" type="car" route="2" depart="56"/>
  <vehicle id="58" type="car" route="3" depart="58"/>
  <vehicle id="59" type="car" route="4" depart="58"/>
  <vehicle id="60" type="car" route="1" depart="59"/>
  <vehicle id="61" type="car" route="2" depart="60"/>
  <vehicle id="62" type="car" route="3" depart="61"/>
  <vehicle id="63" type="car" route="4" depart="62"/>
  <vehicle id="64" type="car" route="1" depart="63"/>
  <vehicle id="65" type="car" route="2" depart="63"/>
  <vehicle id="66" type="car" route="3" depart="64"/>
  <vehicle id="67" type="car" route="4" depart="66"/>
  <vehicle id="68" type="car" route="1" depart="68"/>
  <vehicle id="69" type="car" route="2" depart="72"/>
  <vehicle id="70" type="car" route="3" depart="73"/>
  <vehicle id="71" type="car" route="4" depart="73"/>
  <vehicle id="72" type="car" route="1" depart="76"/>
  <vehicle id="73" type="car" route="2" depart="78"/>
  <vehicle id="74" type="car" route="3" depart="78"/>
  <vehicle id="75" type="car" route="4" depart="78"/>
  <vehicle id="76" type="car" route="1" depart="80"/>
  <vehicle id="77" type="car" route="2" depart="83"/>
  <vehicle id="78" type="car" route="3" depart="83"/>
  <vehicle id="79" type="car" route="4" depart="85"/>
  <vehicle id="80" type="car" route="1" depart="87"/>
  <vehicle id="81" type="car" route="2" depart="87"/>
  <vehicle id="82" type="car" route="3" depart="87"/>
  <vehicle id="83" type="car" route="4" depart="89"/>
  <vehicle id="84" type="car" route="1" depart="91"/>
  <vehicle id="85" type="car" route="2" depart="91"/>
  <vehicle id="86" type="car" route="3" depart="93"/>
  <vehicle id="87" type="car" route="4" depart="94"/>
  <vehicle id="88" type="car" route="1" depart="95"/>
  <vehicle id="89" type="car" route="2" depart="96"/>
  <vehicle id="90" type="car" route="3" depart="99"/>
  <vehicle id="91" type="car" route="4" depart="99"/>
  <vehicle id="92" type="car" route="1" depart="100"/>
  <vehicle id="93" type="car" route="2" depart="101"/>
  <vehicle id="94" type="car" route="3" depart="103"/>
  <vehicle id="95" type="car" route="4" depart="106"/>
  <vehicle id="96" type="car" route="1" depart="108"/>
  <vehicle id="97" type="car" route="2" depart="110"/>
  <vehicle id="98" type="car" route="3" depart="111"/>
  <vehicle id="99" type="car" route="4" depart="112"/>
  <vehicle id="100" type="car" route="1" depart="112"/>
  <vehicle id="101" type="car" route="2" depart="112"/>
  <vehicle id="102" type="car" route="3" depart="113"/>
  <vehicle id="103" type="car" route="4" depart="113"/>
  <vehicle id="104" type="car" route="1" depart="114"/>
  <vehicle id="105" type="car" route="2" depart="115"/>
  <vehicle id="106" type="car" route="3" depart="116"/>
  <vehicle id="107" type="car" route="4" depart="116"/>
  <vehicle id="108" type="car" route="1" depart="120"/>
  <vehicle id="109" type="car" route="2" depart="120"/>
  <vehicle id="110" type="car" route="3" depart="124"/>
  <vehicle id="111" type="car" route="4" depart="127"/>
  <vehicle id="112" type="car" route="1" depart="127"/>
  <vehicle id="113" type="car" route="2" depart="128"/>
  <vehicle id="114" type="car" route="3" depart="129"/>
  <vehicle id="115" type="car" route="4" depart="130"/>
  <vehicle id="116" type="car" route="1" depart="132"/>
  <vehicle id="117" type="car" route="2" depart="135"/>
  <vehicle id="118" type="car" route="3" depart="136"/>
  <vehicle id="119" type="car" route="4" depart="136"/>
  <vehicle id="120" type="car" route="1" depart="138"/>
  <vehicle id="121" type="car" route="2" depart="138"/>
  <vehicle id="122" type="car" route="3" depart="138"/>
  <vehicle id="123" type="car" route="4" depart="139"/>
  <vehicle id="124" type="car" route="1" depart="139"/>
  <vehicle id="125" type="car" route="2" depart="141"/>
  <vehicle id="126" type="car" route="3" depart="142"/>
  <vehicle id="127" type="car" route="4" depart="143"/>
  <vehicle id="128" type="car" route="1" depart="145"/>
  <vehicle id="129" type="car" route="2" depart="146"/>
  <vehicle id="130" type="car" route="3" depart="146"/>
  <vehicle id="131" type="car" route="4" depart="147"/>
  <vehicle id="132" type="car" route="1" depart="148"/>
  <vehicle id="133" type="car" route="2" depart="148"/>
  <vehicle id="134" type="car" route="3" depart="148"/>
  <vehicle id="135" type="car" route="4" depart="148"/>
  <vehicle id="136" type="car" route="1" depart="150"/>
  <vehicle id="137" type="car" route="2" depart="151"/>
  <vehicle id="138" type="car" route="3" depart="154"/>
  <vehicle id="139" type="car" route="4" depart="154"/>
  <vehicle id="140" type="car" route="1" depart="154"/>
  <vehicle id="141" type="car" route="2" depart="155"/>
  <vehicle id="142" type="car" route="3" depart="157"/>
  <vehicle id="143" type="car" route="4" depart="157"/>
  <vehicle id="144" type="car" route="1" depart="158"/>
  <vehicle id="145" type="car" route="2" depart="159"/>
  <vehicle id="146" type="car" route="3" depart="161"/>
  <vehicle id="147" type="car" route="4" depart="162"/>
  <vehicle id="148" type="car" route="1" depart="162"/>
  <vehicle id="149" type="car" route="2" depart="163"/>
  <vehicle id="150" type="car" route="3" depart="163"/>
  <vehicle id="151" type="car" route="4" depart="163"/>
  <vehicle id="152" type="car" route="1" depart="164"/>
  <vehicle id="153" type="car" route="2" depart="165"/>
  <vehicle id="154" type="car" route="3" depart="168"/>
  <vehicle id="155" type="car" route="4" depart="170"/>
  <vehicle id="156" type="car" route="1" depart="171"/>
  <vehicle id="157" type="car" route="2" depart="173"/>
  <vehicle id="158" type="car" route="3" depart="174"/>
  <vehicle id="159" type="car" route="4" depart="174"/>
  <vehicle id="160" type="car" route="1" depart="175"/>
  <vehicle id="161" type="car" route="2" depart="178"/>
  <vehicle id="162" type="car" route="3" depart="178"/>
  <vehicle id="163" type="car" route="4" depart="180"/>
  <vehicle id="164" type="car" route="1" depart="180"/>
  <vehicle id="165" type="car" route="2" depart="184"/>
  <vehicle id="166" type="car" route="3" depart="184"/>
  <vehicle id="167" type="car" route="4" depart="184"/>
  <vehicle id="168" type="car" route="1" depart="187"/>
  <vehicle id="169" type="car" route="2" depart="190"/>
  <vehicle id="170" type="car" route="3" depart="191"/>
  <vehicle id="171" type="car" route="4" depart="192"/>
  <vehicle id="172" type="car" route="1" depart="192"/>
  <vehicle id="173" type="car" route="2" depart="192"/>
  <vehicle id="174" type="car" route="3" depart="193"/>
  <vehicle id="175" type="car" route="4" depart="194"/>
  <vehicle id="176" type="car" route="1" depart="194"/>
  <vehicle id="177" type="car" route="2" depart="194"/>
  <vehicle id="178" type="car" route="3" depart="194"/>
  <vehicle id="179" type="car" route="4" depart="194"/>
  <vehicle id="180" type="car" route="1" depart="196"/>
  <vehicle id="181" type="car" route="2" depart="196"/>
  <vehicle id="182" type="car" route="3" depart="196"/>
  <vehicle id="183" type="car" route="4" depart="197"/>
  <vehicle id="184" type="car" route="1" depart="198"/>
  <vehicle id="185" type="car" route="2" depart="198"/>
  <vehicle id="186" type="car" route="3" depart="198"/>
  <vehicle id="187" type="car" route="4" depart="200"/>
  <vehicle id="188" type="car" route="1" depart="202"/>
  <vehicle id="189" type="car" route="2" depart="204"/>
  <vehicle id="190" type="car" route="3" depart="204"/>
  <vehicle id="191" type="car" route="4" depart="204"/>
  <vehicle id="192" type="car" route="1" depart="207"/>
  <vehicle id="193" type="car" route="2" depart="207"/>
  <vehicle id="194" type="car" route="3" depart="208"/>
  <vehicle id="195" type="car" route="4" depart="209"/>
  <vehicle id="196" type="car" route="1" depart="212"/>
  <vehicle id="197" type="car" route="2" depart="215"/>
  <vehicle id="198" type="car" route="3" depart="215"/>
  <vehicle id="199" type="car" route="4" depart="216"/>
  <vehicle id="200" type="car" route="1" depart="217"/>
  <vehicle id="201" type="car" route="2" depart="217"/>
  <vehicle id="202" type="car" route="3" depart="220"/>
  <vehicle id="203" type="car" route="4" depart="220"/>
  <vehicle id="204" type="car" route="1" depart="220"/>
  <vehicle id="205" type="car" route="2" depart="222"/>
  <vehicle id="206" type="car" route="3" depart="223"/>
  <vehicle id="207" type="car" route="4" depart="224"/>
  <vehicle id="208" type="car" route="1" depart="224"/>
  <vehicle id="209" type="car" route="2" depart="226"/>
  <vehicle id="210" type="car" route="3" depart="226"/>
  <vehicle id="211" type="car" route="4" depart="226"/>
  <vehicle id="212" type="car" route="1" depart="226"/>
  <vehicle id="213" type="car" route="2" depart="226"/>
  <vehicle id="214" type="car" route="3" depart="227"/>
  <vehicle id="215" type="car" route="4" depart="230"/>
  <vehicle id="216" type="car" route="1" depart="232"/>
  <vehicle id="217" type="car" route="2" depart="232"/>
  <vehicle id="218" type="car" route="3" depart="234"/>
  <vehicle id="219" type="car" route="4" depart="234"/>
  <vehicle id="220" type="car" route="1" depart="236"/>
  <vehicle id="221" type="car" route="2" depart="236"/>
  <vehicle id="222" type="car" route="3" depart="237"/>
  <vehicle id="223" type="car" route="4" depart="240"/>
  <vehicle id="224" type="car" route="1" depart="242"/>
  <vehicle id="225" type="car" route="2" depart="243"/>
  <vehicle id="226" type="car" route="3" depart="246"/>
  <vehicle id="227" type="car" route="4" depart="246"/>
  <vehicle id="228" type="car" route="1" depart="247"/>
  <vehicle id="229" type="car" route="2" depart="248"/>
  <vehicle id="230" type="car" route="3" depart="249"/>
  <vehicle id="231" type="car" route="4" depart="250"/>
  <vehicle id="232" type="car" route="1" depart="251"/>
  <vehicle id="233" type="car" route="2" depart="252"/>
  <vehicle id="234" type="car" route="3" depart="255"/>
  <vehicle id="235" type="car" route="4" depart="256"/>
  <vehicle id="236" type="car" route="1" depart="256"/>
  <vehicle id="237" type="car" route="2" depart="256"/>
  <vehicle id="238" type="car" route="3" depart="256"/>
  <vehicle id="239" type="car" route="4" depart="257"/>
  <vehicle id="240" type="car" route="1" depart="257"/>
  <vehicle id="241" type="car" route="2" depart="258"/>
  <vehicle id="242" type="car" route="3" depart="260"/>
  <vehicle id="243" type="car" route="4" depart="260"/>
  <vehicle id="244" type="car" route="1" depart="261"/>
  <vehicle id="245" type="car" route="2" depart="263"/>
  <vehicle id="246" type="car" route="3" depart="263"/>
  <vehicle id="247" type="car" route="4" depart="264"/>
  <vehicle id="248" type="car" route="1" depart="265"/>
  <vehicle id="249" type="car" route="2" depart="265"/>
  <vehicle id="250" type="car" route="3" depart="267"/>
  <vehicle id="251" type="car" route="4" depart="269"/>
  <vehicle id="252" type="car" route="1" depart="269"/>
  <vehicle id="253" type="car" route="2" depart="271"/>
  <vehicle id="254" type="car" route="3" depart="271"/>
  <vehicle id="255" type="car" route="4" depart="271"/>
  <vehicle id="256" type="car" route="1" depart="272"/>
  <vehicle id="257" type="car" route="2" depart="273"/>
  <vehicle id="258" type="car" route="3" depart="273"/>
  <vehicle id="259" type="car" route="4" depart="273"/>
  <vehicle id="260" type="car" route="1" depart="276"/>
  <vehicle id="261" type="car" route="2" depart="277"/>
  <vehicle id="262" type="car" route="3" depart="281"/>
  <vehicle id="263" type="car" route="4" depart="282"/>
  <vehicle id="264" type="car" route="1" depart="284"/>
  <vehicle id="265" type="car" route="2" depart="286"/>
  <vehicle id="266" type="car" route="3" depart="289"/>
  <vehicle id="267" type="car" route="4" depart="290"/>
  <vehicle id="268" type="car" route="1" depart="290"/>
  <vehicle id="269" type="car" route="2" depart="293"/>
  <vehicle id="270" type="car" route="3" depart="295"/>
  <vehicle id="271" type="car" route="4" depart="295"/>
  <vehicle id="272" type="car" route="1" depart="295"/>
  <vehicle id="273" type="car" route="2" depart="296"/>
  <vehicle id="274" type="car" route="3" depart="297"/>
  <vehicle id="275" type="car" route="4" depart="297"/>
  <vehicle id="276" type="car" route="1" depart="297"/>
  <vehicle id="277" type="car" route="2" depart="298"/>
  <vehicle id="278" type="car" route="3" depart="299"/>
  <vehicle id="279" type="car" route="4" depart="300"/>
  <vehicle id="280" type="car" route="1" depart="304"/>
  <vehicle id="281" type="car" route="2" depart="306"/>
  <vehicle id="282" type="car" route="3" depart="307"/>
  <vehicle id="283" type="car" route="4" depart="307"/>
  <vehicle id="284" type="car" route="1" depart="307"/>
  <vehicle id="285" type="car" route="2" depart="307"/>
  <vehicle id="286" type="car" route="3" depart="307"/>
  <vehicle id="287" type="car" route="4" depart="308"/>
  <vehicle id="288" type="car" route="1" depart="308"/>
  <vehicle id="289" type="car" route="2" depart="308"/>
  <vehicle id="290" type="car" route="3" depart="309"/>
  <vehicle id="291" type="car" route="4" depart="311"/>
  <vehicle id="292" type="car" route="1" depart="312"/>
  <vehicle id="293" type="car" route="2" depart="313"/>
  <vehicle id="294" type="car" route="3" depart="313"/>
  <vehicle id="295" type="car" route="4" depart="313"/>
  <vehicle id="296" type="car" route="1" depart="315"/>
  <vehicle id="297" type="car" route="2" depart="316"/>
  <vehicle id="298" type="car" route="3" depart="318"/>
  <vehicle id="299" type="car" route="4" depart="323"/>
  <vehicle id="300" type="car" route="1" depart="324"/>
  <vehicle id="301" type="car" route="2" depart="324"/>
  <vehicle id="302" type="car" route="3" depart="325"/>
  <vehicle id="303" type="car" route="4" depart="325"/>
  <vehicle id="304" type="car" route="1" depart="325"/>
  <vehicle id="305" type="car" route="2" depart="325"/>
  <vehicle id="306" type="car" route="3" depart="327"/>
  <vehicle id="307" type="car" route="4" depart="329"/>
  <vehicle id="308" type="car" route="1" depart="329"/>
  <vehicle id="309" type="car" route="2" depart="331"/>
  <vehicle id="310" type="car" route="3" depart="331"/>
  <vehicle id="311" type="car" route="4" depart="332"/>
  <vehicle id="312" type="car" route="1" depart="332"/>
  <vehicle id="313" type="car" route="2" depart="333"/>
  <vehicle id="314" type="car" route="3" depart="333"/>
  <vehicle id="315" type="car" route="4" depart="333"/>
  <vehicle id="316" type="car" route="1" depart="334"/>
  <vehicle id="317" type="car" route="2" depart="334"/>
  <vehicle id="318" type="car" route="3" depart="335"/>
  <vehicle id="319" type="car" route="4" depart="335"/>
  <vehicle id="320" type="car" route="1" depart="336"/>
  <vehicle id="321" type="car" route="2" depart="338"/>
  <vehicle id="322" type="car" route="3" depart="340"/>
  <vehicle id="323" type="car" route="4" depart="343"/>
  <vehicle id="324" type="car" route="1" depart="343"/>
  <vehicle id="325" type="car" route="2" depart="344"/>
  <vehicle id="326" type="car" route="3" depart="345"/>
  <vehicle id="327" type="car" route="4" depart="345"/>
  <vehicle id="328" type="car" route="1" depart="345"/>
  <vehicle id="329" type="car" route="2" depart="345"/>
  <vehicle id="330" type="car" route="3" depart="346"/>
  <vehicle id="331" type="car" route="4" depart="347"/>
  <vehicle id="332" type="car" route="1" depart="348"/>
  <vehicle id="333" type="car" route="2" depart="349"/>
  <vehicle id="334" type="car" route="3" depart="349"/>
  <vehicle id="335" type="car" route="4" depart="351"/>
  <vehicle id="336" type="car" route="1" depart="353"/>
  <vehicle id="337" type="car" route="2" depart="355"/>
  <vehicle id="338" type="car" route="3" depart="355"/>
  <vehicle id="339" type="car" route="4" depart="355"/>
  <vehicle id="340" type="car" route="1" depart="355"/>
  <vehicle id="341" type="car" route="2" depart="358"/>
  <vehicle id="342" type="car" route="3" depart="359"/>
  <vehicle id="343" type="car" route="4" depart="359"/>
  <vehicle id="344" type="car" route="1" depart="361"/>
  <vehicle id="345" type="car" route="2" depart="363"/>
  <vehicle id="346" type="car" route="3" depart="364"/>
  <vehicle id="347" type="car" route="4" depart="368"/>
  <vehicle id="348" type="car" route="1" depart="369"/>
  <vehicle id="349" type="car" route="2" depart="370"/>
  <vehicle id="350" type="car" route="3" depart="374"/>
  <vehicle id="351" type="car" route="4" depart="374"/>
  <vehicle id="352" type="car" route="1" depart="375"/>
  <vehicle id="353" type="car" route="2" depart="376"/>
  <vehicle id="354" type="car" route="3" depart="379"/>
  <vehicle id="355" type="car" route="4" depart="379"/>
  <vehicle id="356" type="car" route="1" depart="379"/>
  <vehicle id="357" type="car" route="2" depart="381"/>
  <vehicle id="358" type="car" route="3" depart="383"/>
  <vehicle id="359" type="car" route="4" depart="383"/>
  <vehicle id="360" type="car" route="1" depart="383"/>
  <vehicle id="361" type="car" route="2" depart="384"/>
  <vehicle id="362" type="car" route="3" depart="385"/>
  <vehicle id="363" type="car" route="4" depart="387"/>
  <vehicle id="364" type="car" route="1" depart="387"/>
  <vehicle id="365" type="car" route="2" depart="389"/>
  <vehicle id="366" type="car" route="3" depart="390"/>
  <vehicle id="367" type="car" route="4" depart="390"/>
  <vehicle id="368" type="car" route="1" depart="391"/>
  <vehicle id="369" type="car" route="2" depart="391"/>
  <vehicle id="370" type="car" route="3" depart="392"/>
  <vehicle id="371" type="car" route="4" depart="394"/>
  <vehicle id="372" type="car" route="1" depart="394"/>
  <vehicle id="373" type="car" route="2" depart="395"/>
  <vehicle id="374" type="car" route="3" depart="397"/>
  <vehicle id="375" type="car" route="4" depart="399"/>
  <vehicle id="376" type="car" route="1" depart="399"/>
  <vehicle id="377" type="car" route="2" depart="399"/>
  <vehicle id="378" type="car" route="3" depart="400"/>
  <vehicle id="379" type="car" route="4" depart="402"/>
  <vehicle id="380" type="car" route="1" depart="402"/>
  <vehicle id="381" type="car" route="2" depart="403"/>
  <vehicle id="382" type="car" route="3" depart="405"/>
  <vehicle id="383" type="car" route="4" depart="405"/>
  <vehicle id="384" type="car" route="1" depart="406"/>
  <vehicle id="385" type="car" route="2" depart="406"/>
  <vehicle id="386" type="car" route="3" depart="407"/>
  <vehicle id="387" type="car" route="4" depart="408"/>
  <vehicle id="388" type="car" route="1" depart="411"/>
  <vehicle id="389" type="car" route="2" depart="411"/>
  <vehicle id="390" type="car" route="3" depart="411"/>
  <vehicle id="391" type="car" route="4" depart="412"/>
  <vehicle id="392" type="car" route="1" depart="414"/>
  <vehicle id="393" type="car" route="2" depart="415"/>
  <vehicle id="394" type="car" route="3" depart="415"/>
  <vehicle id="395" type="car" route="4" depart="416"/>
  <vehicle id="396" type="car" route="1" depart="416"/>
  <vehicle id="397" type="car" route="2" depart="418"/>
  <vehicle id="398" type="car" route="3" depart="418"/>
  <vehicle id="399" type="car" route="4" depart="419"/>
  <vehicle id="400" type="car" route="1" depart="423"/>
  <vehicle id="401" type="car" route="2" depart="423"/>
  <vehicle id="402" type="car" route="3" depart="424"/>
  <vehicle id="403" type="car" route="4" depart="425"/>
  <vehicle id="404" type="car" route="1" depart="425"/>
  <vehicle id="405" type="car" route="2" depart="427"/>
  <vehicle id="406" type="car" route="3" depart="428"/>
  <vehicle id="407" type="car" route="4" depart="429"/>
  <vehicle id="408" type="car" route="1" depart="430"/>
  <vehicle id="409" type="car" route="2" depart="430"/>
  <vehicle id="410" type="car" route="3" depart="431"/>
  <vehicle id="411" type="car" route="4" depart="432"/>
  <vehicle id="412" type="car" route="1" depart="432"/>
  <vehicle id="413" type="car" route="2" depart="435"/>
  <vehicle id="414" type="car" route="3" depart="436"/>
  <vehicle id="415" type="car" route="4" depart="437"/>
  <vehicle id="416" type="car" route="1" depart="437"/>
  <vehicle id="417" type="car" route="2" depart="437"/>
  <vehicle id="418" type="car" route="3" depart="439"/>
  <vehicle id="419" type="car" route="4" depart="441"/>
  <vehicle id="420" type="car" route="1" depart="443"/>
  <vehicle id="421" type="car" route="2" depart="444"/>
  <vehicle id="422" type="car" route="3" depart="445"/>
  <vehicle id="423" type="car" route="4" depart="446"/>
  <vehicle id="424" type="car" route="1" depart="447"/>
  <vehicle id="425" type="car" route="2" depart="448"/>
  <vehicle id="426" type="car" route="3" depart="448"/>
  <vehicle id="427" type="car" route="4" depart="448"/>
  <vehicle id="428" type="car" route="1" depart="448"/>
  <vehicle id="429" type="car" route="2" depart="449"/>
  <vehicle id="430" type="car" route="3" depart="450"/>
  <vehicle id="431" type="car" route="4" depart="451"/>
  <vehicle id="432" type="car" route="1" depart="451"/>
  <vehicle id="433" type="car" route="2" depart="453"/>
  <vehicle id="434" type="car" route="3" depart="454"/>
  <vehicle id="435" type="car" route="4" depart="454"/>
  <vehicle id="436" type="car" route="1" depart="454"/>
  <vehicle id="437" type="car" route="2" depart="456"/>
  <vehicle id="438" type="car" route="3" depart="457"/>
  <vehicle id="439" type="car" route="4" depart="457"/>
  <vehicle id="440" type="car" route="1" depart="458"/>
  <vehicle id="441" type="car" route="2" depart="458"/>
  <vehicle id="442" type="car" route="3" depart="461"/>
  <vehicle id="443" type="car" route="4" depart="462"/>
  <vehicle id="444" type="car" route="1" depart="463"/>
  <vehicle id="445" type="car" route="2" depart="464"/>
  <vehicle id="446" type="car" route="3" depart="464"/>
  <vehicle id="447" type="car" route="4" depart="464"/>
  <vehicle id="448" type="car" route="1" depart="465"/>
  <vehicle id="449" type="car" route="2" depart="467"/>
  <vehicle id="450" type="car" route="3" depart="470"/>
  <vehicle id="451" type="car" route="4" depart="473"/>
  <vehicle id="452" type="car" route="1" depart="475"/>
  <vehicle id="453" type="car" route="2" depart="477"/>
  <vehicle id="454" type="car" route="3" depart="477"/>
  <vehicle id="455" type="car" route="4" depart="477"/>
  <vehicle id="456" type="car" route="1" depart="477"/>
  <vehicle id="457" type="car" route="2" depart="480"/>
  <vehicle id="458" type="car" route="3" depart="482"/>
  <vehicle id="459" type="car" route="4" depart="482"/>
  <vehicle id="460" type="car" route="1" depart="485"/>
  <vehicle id="461" type="car" route="2" depart="487"/>
  <vehicle id="462" type="car" route="3" depart="487"/>
  <vehicle id="463" type="car" route="4" depart="487"/>
  <vehicle id="464" type="car" route="1" depart="487"/>
  <vehicle id="465" type="car" route="2" depart="489"/>
  <vehicle id="466" type="car" route="3" depart="489"/>
  <vehicle id="467" type="car" route="4" depart="491"/>
  <vehicle id="468" type="car" route="1" depart="493"/>
  <vehicle id="469" type="car" route="2" depart="493"/>
  <vehicle id="470" type="car" route="3" depart="496"/>
  <vehicle id="471" type="car" route="4" depart="499"/>
  <vehicle id="472" type="car" route="1" depart="499"/>
  <vehicle id="473" type="car" route="2" depart="499"/>
  <vehicle id="474" type="car" route="3" depart="500"/>
  <vehicle id="475" type="car" route="4" depart="501"/>
  <vehicle id="476" type="car" route="1" depart="503"/>
  <vehicle id="477" type="car" route="2" depart="504"/>
  <vehicle id="478" type="car" route="3" depart="505"/>
  <vehicle id="479" type="car" route="4" depart="507"/>
  <vehicle id="480" type="car" route="1" depart="507"/>
  <vehicle id="481" type="car" route="2" depart="509"/>
  <vehicle id="482" type="car" route="3" depart="510"/>
  <vehicle id="483" type="car" route="4" depart="511"/>
  <vehicle id="484" type="car" route="1" depart="512"/>
  <vehicle id="485" type="car" route="2" depart="514"/>
  <vehicle id="486" type="car" route="3" depart="514"/>
  <vehicle id="487" type="car" route="4" depart="514"/>
  <vehicle id="488" type="car" route="1" depart="514"/>
  <vehicle id="489" type="car" route="2" depart="514"/>
  <vehicle id="490" type="car" route="3" depart="515"/>
  <vehicle id="491" type="car" route="4" depart="518"/>
  <vehicle id="492" type="car" route="1" depart="518"/>
  <vehicle id="493" type="car" route="2" depart="520"/>
  <vehicle id="494" type="car" route="3" depart="520"/>
  <vehicle id="495" type="car" route="4" depart="521"/>
  <vehicle id="496" type="car" route="1" depart="526"/>
  <vehicle id="497" type="car" route="2" depart="527"/>
  <vehicle id="498" type="car" route="3" depart="528"/>
  <vehicle id="499" type="car" route="4" depart="528"/>
  <!--
  <vehicle id="0" type="car" route="1" depart="0"/>
  <vehicle id="1" type="car" route="2" depart="0"/>
  <vehicle id="2" type="car" route="3" depart="0"/>
  <vehicle id="3" type="car" route="4" depart="0"/>
  <vehicle id="4" type="car" route="1" depart="5"/>
  <vehicle id="5" type="car" route="2" depart="5"/>
  <vehicle id="6" type="car" route="3" depart="5"/>
  <vehicle id="7" type="car" route="4" depart="5"/>
  <vehicle id="8" type="car" route="1" depart="10"/>
  <vehicle id="9" type="car" route="2" depart="10"/>
  <vehicle id="10" type="car" route="3" depart="10"/>
  <vehicle id="11" type="car" route="4" depart="10"/>
  <vehicle id="12" type="car" route="1" depart="15"/>
  <vehicle id="13" type="car" route="2" depart="15"/>
  <vehicle id="14" type="car" route="3" depart="15"/>
  <vehicle id="15" type="car" route="4" depart="15"/>
  <vehicle id="16" type="car" route="1" depart="20"/>
  <vehicle id="17" type="car" route="2" depart="20"/>
  <vehicle id="18" type="car" route="3" depart="20"/>
  <vehicle id="19" type="car" route="4" depart="20"/>
  <vehicle id="20" type="car" route="1" depart="25"/>
  <vehicle id="21" type="car" route="2" depart="25"/>
  <vehicle id="22" type="car" route="3" depart="25"/>
  <vehicle id="23" type="car" route="4" depart="25"/>
  <vehicle id="24" type="car" route="1" depart="30"/>
  <vehicle id="25" type="car" route="2" depart="30"/>
  <vehicle id="26" type="car" route="3" depart="30"/>
  <vehicle id="27" type="car" route="4" depart="30"/>
  <vehicle id="28" type="car" route="1" depart="35"/>
  <vehicle id="29" type="car" route="2" depart="35"/>
  <vehicle id="30" type="car" route="3" depart="35"/>
  <vehicle id="31" type="car" route="4" depart="35"/>
  <vehicle id="32" type="car" route="1" depart="40"/>